# Packages (lines beginning "#" are comments)
 &PACKAGES
  useGMRedi = .TRUE.,
  useSBO = .TRUE.,
  useDiagnostics= .TRUE.,
#  useSEAICE = .TRUE.,
  useDiagnostics_ob = .TRUE.,
#useMNC =.TRUE.,
 &
