# Packages (lines beginning "#" are comments)
 &PACKAGES
 useGMRedi=.TRUE.,
 useSBO=.TRUE.,
 useDiagnostics=.TRUE.,
#useDIAGNOSTICS_OB = .TRUE.,
#useMNC=.TRUE.,
 &
