# Packages
 &PACKAGES
  useGMRedi = .TRUE.,
  useKPP    = .TRUE.,
  useEXF    = .TRUE.,
  useCAL    = .TRUE.,
  useSEAICE = .TRUE.,
  useDiagnostics_ob = .TRUE.,
  useDiagnostics = .TRUE.,
  useMNC    = .FALSE.,
 &
